*Heading
** Job name: 040817_ep2d_mddw12_right_TA Model name: 040817_ep2d_mddw12_right_TA
** Generated by: Abaqus/CAE 2017
*Preprint, echo=NO, model=NO, history=NO, contact=NO
**
** PARTS
**
*Part, name=PART-1
*Node
      1,   84.4256592,    132.17366,   67.5130463
      2,   83.8932495,   130.141907,   72.1751099
      3,   86.6849289,   135.045425,   67.2827225
      4,   81.7743912,   135.170425,   72.6800537
      5,   92.3398285,   275.778076,   99.5784531
      6,   86.2225571,   276.986633,   104.575127
      7,   90.5065231,   271.278107,      104.986
      8,   90.8003845,   276.188599,   106.595131
      9,   88.0802612,   146.981949,   86.1626511
     10,   82.0343552,    141.77774,   74.4083328
     11,   81.5109329,   150.785568,   72.6810608
     12,   91.0771103,   141.328171,   69.2913742
     13,   56.8150139,   209.433975,   67.0873642
     14,   56.4723473,    219.21167,   67.0315247
     15,    49.418396,   211.782272,   67.8186493
     16,   53.5923843,   210.228973,   80.2626724
     17,    94.835289,   237.705902,   75.3833237
     18,    90.394249,   230.732895,   72.0061111
     19,   89.6641693,   234.811249,    79.921524
     20,   87.8201141,   238.233002,   71.7328033
** ... 710 like lines cut
*Element, type=C3D4
   1,   1,   2,   3,   4
   2,   5,   6,   7,   8
   3,   9,  10,  11,  12
   4,  13,  14,  15,  16
   5,  17,  18,  19,  20
   6,  21,  22,  23,  24
   7,  22,  25,  23,  24
   8,  26,  27,  28,  29
   9,  30,  18,  19,  31
  10,  32,  33,  34,  35
  11,  36,  37,  38,  39
  12,  31,  40,  41,  42
  13,  43,  44,  45,  46
  14,  47,  48,  49,  50
  15,  51,  52,  53,  54
  16,  55,  56,  57,  58
  17,  26,  59,  29,  60
  18,  26,  29,  28,  61
  19,  62,  63,  64,  65
  20,  66,  67,  19,  17
** ... 2248 like lines cut
*Elset, elset=PSOLID_1, generate
    1,  2268,     1
** Section: Section-1-PSOLID_1
*Solid Section, elset=PSOLID_1, material=MATERIAL_PSOLID_1
,
*End Part
**  
**
** ASSEMBLY
**
*Assembly, name=Assembly
**  
*Instance, name=PART-1-1, part=PART-1
*End Instance
**  
*Elset, elset=ALL_3DSOLID, instance=PART-1-1, generate
    1,  2268,     1
*Elset, elset=ALL_MASSIVE_ELEMENTS, instance=PART-1-1, generate
    1,  2268,     1
*End Assembly
** 
** MATERIALS
** 
**  ---------------------------------------------------
**  ---- SOLID elements -------------------------------
**  ---------------------------------------------------
** 
**  following elements refer to a (missing) PSOLID entry with PID = 1
**  DUMMY MATERIAL AND SECTION -=>
*Material, name=MATERIAL_PSOLID_1
*Elastic
1.,0.
** ----------------------------------------------------------------
** 
** STEP: Step-1
** 
*Step, name=Step-1, nlgeom=NO
WARNING: did not find "SOL=" in Nastran file
*Static
1., 1., 1e-05, 1.
** 
** OUTPUT REQUESTS
** 
*Restart, write, frequency=0
** 
** FIELD OUTPUT: F-Output-1
** 
*Output, field, variable=PRESELECT
** 
** HISTORY OUTPUT: H-Output-1
** 
*Output, history, variable=PRESELECT
*End Step
