*********************************************************************
** Abaqus/fromNastran Abaqus 3DEXPERIENCE R2017x
**
** reading bulk data from: D:\Abaqus_working\TA_dyna.nastran
**  creating Abaqus input: D:\Abaqus_working\TA_dyna.inp
** writing diagnostics to: D:\Abaqus_working\TA_dyna.log
**
**  environment variables: fromnastran_wtmass_fixup <not present>
**                       : fromnastran_distribution <not present>
**                       : fromnastran_pbar_zero_reset <not present>
**                       : fromnastran_loadcases <not present>
**                       : fromnastran_surface_based_coupling <not present>
**                       : fromnastran_cquad4 <not present>
**                       : fromnastran_chexa <not present>
**                       : fromnastran_ctetra <not present>
**                       : fromnastran_cbar <not present>
**                       : fromnastran_beam_offset_coupling <not present>
**                       : fromnastran_beam_orientation_vector <not present>
**                       : fromnastran_shell_general_section <not present>
**                       : fromnastran_eigensolver <not present>
**                       : fromnastran_plotel <not present>
**                       : fromnastran_cdh_weld <not present>
**                       : fromnastran_spoint_dof <not present>
**
** command line arguments: wtmass_fixup=ON
**                       : distribution=preservePID
**                       : pbar_zero_reset=1e-20
**                       : loadcases=ON
**                       : surface_based_coupling=ON
**                       : cquad4=S4R
**                       : chexa=C3D8I
**                       : ctetra=C3D10M
**                       : cbar=B31
**                       : beam_offset_coupling=ON
**                       : beam_orientation_vector=ON
**                       : shell_general_section=OFF
**                       : plotel <not present>
**                       : cdh_weld <not present>
**                       : eigensolver <not present>
**                       : spoint_dof <not present, using default=9>
**
** --------------------------------
** Nastran Case Control entities processed:
**      keyword   number
** ------------   ------
**   BEGIN BULK        1
** --------------------------------
** Nastran Bulk Data processed:
**      keyword   number
** ------------   ------
**       CTETRA     1851
**      ENDDATA        1
**         GRID      619
**
** environment_variable / command_line_argument summary:
** PARAM,WTMASS will be used to adjust structural mass/density
** *DISTRIBUTION will be used for shell offsets, orientations, and thicknesses
**  shell elements will be grouped by PSHELL ID
** Zero PBAR/PBEAM cross sectional parameters will be reset to 1e-20
** Rigid links will be modeled using surface-based *COUPLING constraints
** Beam orientations will be modeled using vectors on beam sections
** Beam offsets will be modeled using rigid couplings and extra nodes
** PSHELL/PCOMP will default to *SHELL SECTION
** PLOTELs will not be translated
** "CDH welds" (isolated CHEXAs with 8 RBE3s) will not be translated to
**  rigid fasteners
** CWELDs will be translated to compliant fasteners
** CQUAD4 elements will be translated to S4R
** SPOINT DOF 0 will be reset to 9 in DMIG, MPC, CELAS2, and CMASS2 data
**
** ---------------------------------------------------
** ---- *NODE ----------------------------------------
** ---------------------------------------------------
**
** following nodes were defined in the global coordinate system
**
*SYSTEM
**
*NODE, SYSTEM=R
       1,   85.190407,   135.34657,   77.329597
       2,   80.913422,    134.9846,   77.112663
       3,   84.805138,   131.90146,   77.909241
       4,   81.189888,   134.44879,   81.125053
       5,   86.793427,   197.25061,   72.315277
       6,   91.573242,   191.48662,   74.946884
       7,   91.542847,   190.37279,   84.656799
       8,   86.788712,   189.12132,    71.86216
       9,   81.605881,   131.10011,   78.137123
      10,   78.726982,   138.60834,   81.493439
      11,   84.444183,   138.11984,   83.800102
      12,   84.809326,   143.21298,   70.839149
      13,   80.429237,    150.5887,    77.96228
      14,   73.149338,   316.76859,    88.82267
      15,   70.309296,   321.95294,   96.475204
      16,   84.036575,   312.53995,   94.888199
      17,   80.995537,    323.8822,   87.371277
      18,   92.234756,   240.23647,   89.364891
      19,    84.53672,   236.68376,   83.352921
      20,   78.236496,   239.92894,   94.274498
** ... 599 like lines cut
**
*SECTION CONTROLS, NAME=REDUCED_INTEGRATION_FROMNASTRAN
**
** ---------------------------------------------------
** ---- SOLID elements -------------------------------
** ---------------------------------------------------
**
** following elements refer to a (missing) PSOLID entry with PID = 1
** DUMMY MATERIAL AND SECTION -=>
*MATERIAL, NAME=MATERIAL_PSOLID_1
*ELASTIC
1., 0.
**
*SOLID SECTION, ELSET=PSOLID_1, MATERIAL=MATERIAL_PSOLID_1
**
*ELEMENT, TYPE=C3D4, ELSET=PSOLID_1
**
1, 1, 2, 3, 4
2, 5, 6, 7, 8
3, 4, 2, 3, 9
4, 10, 11, 12, 13
5, 14, 15, 16, 17
6, 18, 19, 20, 21
7, 22, 23, 24, 25
8, 13, 26, 27, 28
9, 29, 30, 31, 16
10, 32, 33, 34, 35
11, 36, 37, 38, 39
12, 40, 41, 42, 43
13, 44, 45, 46, 47
14, 2, 10, 48, 49
15, 50, 32, 34, 51
16, 52, 50, 34, 51
17, 50, 32, 51, 53
18, 54, 55, 56, 57
19, 58, 16, 59, 17
20, 52, 50, 51, 53
** ... 1831 like lines cut
**
** elset ALL_3DSOLID contains 1851 elements in 1 elsets
*ELSET, ELSET=ALL_3DSOLID
PSOLID_1,
*Orientation, name=Ori-DiscField-1, system=RECTANGULAR
DiscField-1
*Distribution, name=DiscField-1, location=ELEMENT, Table=DiscField-1_Table
 ,           1.,           0.,           0.,           0.,           1.,           0.
1,-0.44131,0.89636,-0.042125,0.41449,0.40198,0.81647
2,-0.09249,0.99571,-0.0002652,0.67029,0.068637,0.73892
3,-0.44515,0.89439,-0.043577,0.41012,0.40638,0.81649
4,-0.41148,0.91121,-0.019661,0.44708,0.36814,0.81522
5,0.35854,0.92856,0.096021,0.79105,-0.22036,0.57069
6,0.48659,0.87333,-0.022727,0.80571,-0.28829,0.51742
7,0.073747,0.98325,0.16667,0.73123,-0.051018,0.68022
8,-0.40778,0.91308,0.0003064,0.45099,0.36396,0.81495
9,0.34631,0.93504,0.075993,0.7892,-0.2133,0.57591
10,0.004457,0.98438,0.17601,0.7087,-0.003194,0.7055
11,0.39197,0.91964,0.02513,0.79532,-0.23768,0.55765
12,0.32708,0.94434,-0.035293,0.7862,-0.20226,0.58394
13,0.33148,0.9354,0.12311,0.78722,-0.20598,0.58125
14,-0.43007,0.9021,-0.035325,0.42709,0.38912,0.8162
15,-0.052176,0.98824,0.14373,0.68718,0.038303,0.72548
16,-0.048304,0.98752,0.14987,0.68873,0.035421,0.72415
17,-0.08885,0.98889,0.1192,0.67162,0.066301,0.73792
18,-0.37364,0.92708,-0.030276,0.4844,0.32702,0.81142
19,0.4204,0.9039,0.078941,0.79894,-0.25363,0.54531
20,-0.079552,0.98862,0.12769,0.67569,0.059129,0.73482
** ... 1831 like lines cut
**
** elset ALL_MASSIVE_ELEMENTS contains all 1851 elements that can have mass
*ELSET, ELSET=ALL_MASSIVE_ELEMENTS
ALL_3DSOLID,
*STEP
WARNING: did not find "SOL=" in Nastran file
*STATIC
*END STEP
