*********************************************************************
** Abaqus/fromNastran Abaqus 3DEXPERIENCE R2017x
**
** reading bulk data from: C:\Users\saini\Documents\PhD_Local_C\41_MATLAB\abaqus\DYNA_to_Abaqus_tets_with_orient\code\nastran_output\040817_ep2d_mddw12_right_TA.nastran
**  creating Abaqus input: C:\Users\saini\Documents\PhD_Local_C\41_MATLAB\abaqus\DYNA_to_Abaqus_tets_with_orient\code\nastran_output\040817_ep2d_mddw12_right_TA.inp
** writing diagnostics to: C:\Users\saini\Documents\PhD_Local_C\41_MATLAB\abaqus\DYNA_to_Abaqus_tets_with_orient\code\nastran_output\040817_ep2d_mddw12_right_TA.log
**
**  environment variables: fromnastran_wtmass_fixup <not present>
**                       : fromnastran_distribution <not present>
**                       : fromnastran_pbar_zero_reset <not present>
**                       : fromnastran_loadcases <not present>
**                       : fromnastran_surface_based_coupling <not present>
**                       : fromnastran_cquad4 <not present>
**                       : fromnastran_chexa <not present>
**                       : fromnastran_ctetra <not present>
**                       : fromnastran_cbar <not present>
**                       : fromnastran_beam_offset_coupling <not present>
**                       : fromnastran_beam_orientation_vector <not present>
**                       : fromnastran_shell_general_section <not present>
**                       : fromnastran_eigensolver <not present>
**                       : fromnastran_plotel <not present>
**                       : fromnastran_cdh_weld <not present>
**                       : fromnastran_spoint_dof <not present>
**
** command line arguments: wtmass_fixup=ON
**                       : distribution=preservePID
**                       : pbar_zero_reset=1e-20
**                       : loadcases=ON
**                       : surface_based_coupling=ON
**                       : cquad4=S4R
**                       : chexa=C3D8I
**                       : ctetra=C3D10M
**                       : cbar=B31
**                       : beam_offset_coupling=ON
**                       : beam_orientation_vector=ON
**                       : shell_general_section=OFF
**                       : plotel <not present>
**                       : cdh_weld <not present>
**                       : eigensolver <not present>
**                       : spoint_dof <not present, using default=9>
**
** --------------------------------
** Nastran Case Control entities processed:
**      keyword   number
** ------------   ------
**   BEGIN BULK        1
** --------------------------------
** Nastran Bulk Data processed:
**      keyword   number
** ------------   ------
**       CTETRA     2268
**      ENDDATA        1
**         GRID      730
**
** environment_variable / command_line_argument summary:
** PARAM,WTMASS will be used to adjust structural mass/density
** *DISTRIBUTION will be used for shell offsets, orientations, and thicknesses
**  shell elements will be grouped by PSHELL ID
** Zero PBAR/PBEAM cross sectional parameters will be reset to 1e-20
** Rigid links will be modeled using surface-based *COUPLING constraints
** Beam orientations will be modeled using vectors on beam sections
** Beam offsets will be modeled using rigid couplings and extra nodes
** PSHELL/PCOMP will default to *SHELL SECTION
** PLOTELs will not be translated
** "CDH welds" (isolated CHEXAs with 8 RBE3s) will not be translated to
**  rigid fasteners
** CWELDs will be translated to compliant fasteners
** CQUAD4 elements will be translated to S4R
** SPOINT DOF 0 will be reset to 9 in DMIG, MPC, CELAS2, and CMASS2 data
**
** ---------------------------------------------------
** ---- *NODE ----------------------------------------
** ---------------------------------------------------
**
** following nodes were defined in the global coordinate system
**
*SYSTEM
**
*NODE, SYSTEM=R
       1,   84.425659,   132.17366,   67.513046
       2,    83.89325,   130.14191,    72.17511
       3,   86.684929,   135.04543,   67.282722
       4,   81.774391,   135.17043,   72.680054
       5,   92.339828,   275.77808,   99.578453
       6,   86.222557,   276.98663,   104.57513
       7,   90.506523,   271.27811,     104.986
       8,   90.800385,    276.1886,   106.59513
       9,   88.080261,   146.98195,   86.162651
      10,   82.034355,   141.77774,   74.408333
      11,   81.510933,   150.78557,   72.681061
      12,    91.07711,   141.32817,   69.291374
      13,   56.815014,   209.43398,   67.087364
      14,   56.472347,   219.21167,   67.031525
      15,   49.418396,   211.78227,   67.818649
      16,   53.592384,   210.22897,   80.262672
      17,   94.835289,    237.7059,   75.383324
      18,   90.394249,   230.73289,   72.006111
      19,   89.664169,   234.81125,   79.921524
      20,   87.820114,     238.233,   71.732803
** ... 710 like lines cut
**
*SECTION CONTROLS, NAME=REDUCED_INTEGRATION_FROMNASTRAN
**
** ---------------------------------------------------
** ---- SOLID elements -------------------------------
** ---------------------------------------------------
**
** following elements refer to a (missing) PSOLID entry with PID = 1
** DUMMY MATERIAL AND SECTION -=>
*MATERIAL, NAME=MATERIAL_PSOLID_1
*ELASTIC
1., 0.
**
*SOLID SECTION, ELSET=PSOLID_1, MATERIAL=MATERIAL_PSOLID_1
**
*ELEMENT, TYPE=C3D4, ELSET=PSOLID_1
**
1, 1, 2, 3, 4
2, 5, 6, 7, 8
3, 9, 10, 11, 12
4, 13, 14, 15, 16
5, 17, 18, 19, 20
6, 21, 22, 23, 24
7, 22, 25, 23, 24
8, 26, 27, 28, 29
9, 30, 18, 19, 31
10, 32, 33, 34, 35
11, 36, 37, 38, 39
12, 31, 40, 41, 42
13, 43, 44, 45, 46
14, 47, 48, 49, 50
15, 51, 52, 53, 54
16, 55, 56, 57, 58
17, 26, 59, 29, 60
18, 26, 29, 28, 61
19, 62, 63, 64, 65
20, 66, 67, 19, 17
** ... 2248 like lines cut
**
** elset ALL_3DSOLID contains 2268 elements in 1 elsets
*ELSET, ELSET=ALL_3DSOLID
PSOLID_1,
**
** elset ALL_MASSIVE_ELEMENTS contains all 2268 elements that can have mass
*ELSET, ELSET=ALL_MASSIVE_ELEMENTS
ALL_3DSOLID,
*STEP
WARNING: did not find "SOL=" in Nastran file
*STATIC
*END STEP
