*********************************************************************
** Abaqus/fromNastran Abaqus 3DEXPERIENCE R2017x
**
** reading bulk data from: C:\Users\saini\Documents\PhD_Local_C\41_MATLAB\abaqus\DYNA_to_Abaqus_tets_with_orient\code\nastran_output\270717_ep2d_mddw12_right_TA_isolated.nastran
**  creating Abaqus input: C:\Users\saini\Documents\PhD_Local_C\41_MATLAB\abaqus\DYNA_to_Abaqus_tets_with_orient\code\nastran_output\270717_ep2d_mddw12_right_TA_isolated.inp
** writing diagnostics to: C:\Users\saini\Documents\PhD_Local_C\41_MATLAB\abaqus\DYNA_to_Abaqus_tets_with_orient\code\nastran_output\270717_ep2d_mddw12_right_TA_isolated.log
**
**  environment variables: fromnastran_wtmass_fixup <not present>
**                       : fromnastran_distribution <not present>
**                       : fromnastran_pbar_zero_reset <not present>
**                       : fromnastran_loadcases <not present>
**                       : fromnastran_surface_based_coupling <not present>
**                       : fromnastran_cquad4 <not present>
**                       : fromnastran_chexa <not present>
**                       : fromnastran_ctetra <not present>
**                       : fromnastran_cbar <not present>
**                       : fromnastran_beam_offset_coupling <not present>
**                       : fromnastran_beam_orientation_vector <not present>
**                       : fromnastran_shell_general_section <not present>
**                       : fromnastran_eigensolver <not present>
**                       : fromnastran_plotel <not present>
**                       : fromnastran_cdh_weld <not present>
**                       : fromnastran_spoint_dof <not present>
**
** command line arguments: wtmass_fixup=ON
**                       : distribution=preservePID
**                       : pbar_zero_reset=1e-20
**                       : loadcases=ON
**                       : surface_based_coupling=ON
**                       : cquad4=S4R
**                       : chexa=C3D8I
**                       : ctetra=C3D10M
**                       : cbar=B31
**                       : beam_offset_coupling=ON
**                       : beam_orientation_vector=ON
**                       : shell_general_section=OFF
**                       : plotel <not present>
**                       : cdh_weld <not present>
**                       : eigensolver <not present>
**                       : spoint_dof <not present, using default=9>
**
** --------------------------------
** Nastran Case Control entities processed:
**      keyword   number
** ------------   ------
**   BEGIN BULK        1
** --------------------------------
** Nastran Bulk Data processed:
**      keyword   number
** ------------   ------
**       CTETRA     2534
**      ENDDATA        1
**         GRID      853
**
** environment_variable / command_line_argument summary:
** PARAM,WTMASS will be used to adjust structural mass/density
** *DISTRIBUTION will be used for shell offsets, orientations, and thicknesses
**  shell elements will be grouped by PSHELL ID
** Zero PBAR/PBEAM cross sectional parameters will be reset to 1e-20
** Rigid links will be modeled using surface-based *COUPLING constraints
** Beam orientations will be modeled using vectors on beam sections
** Beam offsets will be modeled using rigid couplings and extra nodes
** PSHELL/PCOMP will default to *SHELL SECTION
** PLOTELs will not be translated
** "CDH welds" (isolated CHEXAs with 8 RBE3s) will not be translated to
**  rigid fasteners
** CWELDs will be translated to compliant fasteners
** CQUAD4 elements will be translated to S4R
** SPOINT DOF 0 will be reset to 9 in DMIG, MPC, CELAS2, and CMASS2 data
**
** ---------------------------------------------------
** ---- *NODE ----------------------------------------
** ---------------------------------------------------
**
** following nodes were defined in the global coordinate system
**
*SYSTEM
**
*NODE, SYSTEM=R
       1,   80.763031,   211.61214,   92.605888
       2,   78.779861,   213.73872,   85.924271
       3,   81.096977,   209.22638,   87.264374
       4,   74.628456,   210.06679,   91.888718
       5,   71.825676,   308.49048,   99.018997
       6,   70.980057,   314.43481,   95.703682
       7,   68.905167,   313.53378,   99.243752
       8,   75.361267,    314.6958,   99.469696
       9,   72.697327,   218.28349,   92.351379
      10,   65.182503,   210.42276,   94.706718
      11,   69.042114,   213.64268,   81.939903
      12,   56.653461,   222.62169,   98.948402
      13,    55.39735,   224.68062,    97.41555
      14,   61.655888,   227.16339,   92.910233
      15,   54.588539,   220.66951,    94.58078
      16,   79.440765,   221.69464,   86.828209
      17,    80.68663,   217.34885,   87.402405
      18,   80.090187,   221.84584,   94.573235
      19,   58.572647,   233.42311,   92.648941
      20,   54.384941,   227.71509,   95.225143
** ... 833 like lines cut
**
*SECTION CONTROLS, NAME=REDUCED_INTEGRATION_FROMNASTRAN
**
** ---------------------------------------------------
** ---- SOLID elements -------------------------------
** ---------------------------------------------------
**
** following elements refer to a (missing) PSOLID entry with PID = 1
** DUMMY MATERIAL AND SECTION -=>
*MATERIAL, NAME=MATERIAL_PSOLID_1
*ELASTIC
1., 0.
**
*SOLID SECTION, ELSET=PSOLID_1, MATERIAL=MATERIAL_PSOLID_1
**
*ELEMENT, TYPE=C3D4, ELSET=PSOLID_1
**
1, 1, 2, 3, 4
2, 5, 6, 7, 8
3, 9, 10, 11, 4
4, 12, 13, 14, 15
5, 16, 17, 18, 9
6, 19, 20, 21, 14
7, 22, 23, 18, 24
8, 22, 23, 25, 18
9, 26, 27, 28, 29
10, 30, 31, 32, 33
11, 34, 25, 18, 35
12, 36, 37, 38, 39
13, 40, 41, 42, 43
14, 41, 44, 42, 43
15, 45, 46, 47, 48
16, 49, 16, 50, 51
17, 52, 53, 54, 55
18, 56, 57, 58, 59
19, 60, 61, 62, 63
20, 64, 65, 66, 67
** ... 2514 like lines cut
**
** elset ALL_3DSOLID contains 2534 elements in 1 elsets
*ELSET, ELSET=ALL_3DSOLID
PSOLID_1,
**
** elset ALL_MASSIVE_ELEMENTS contains all 2534 elements that can have mass
*ELSET, ELSET=ALL_MASSIVE_ELEMENTS
ALL_3DSOLID,
*STEP
WARNING: did not find "SOL=" in Nastran file
*STATIC
*END STEP
