*********************************************************************
** Abaqus/fromNastran Abaqus 3DEXPERIENCE R2017x
**
** reading bulk data from: C:\Users\saini\Documents\PhD_Local_C\41_MATLAB\abaqus\DYNA_to_Abaqus_tets_with_orient\code\nastran_output\ep2d_mddw12_right_TA_isolated.nastran
**  creating Abaqus input: C:\Users\saini\Documents\PhD_Local_C\41_MATLAB\abaqus\DYNA_to_Abaqus_tets_with_orient\code\nastran_output\ep2d_mddw12_right_TA_isolated.inp
** writing diagnostics to: C:\Users\saini\Documents\PhD_Local_C\41_MATLAB\abaqus\DYNA_to_Abaqus_tets_with_orient\code\nastran_output\ep2d_mddw12_right_TA_isolated.log
**
**  environment variables: fromnastran_wtmass_fixup <not present>
**                       : fromnastran_distribution <not present>
**                       : fromnastran_pbar_zero_reset <not present>
**                       : fromnastran_loadcases <not present>
**                       : fromnastran_surface_based_coupling <not present>
**                       : fromnastran_cquad4 <not present>
**                       : fromnastran_chexa <not present>
**                       : fromnastran_ctetra <not present>
**                       : fromnastran_cbar <not present>
**                       : fromnastran_beam_offset_coupling <not present>
**                       : fromnastran_beam_orientation_vector <not present>
**                       : fromnastran_shell_general_section <not present>
**                       : fromnastran_eigensolver <not present>
**                       : fromnastran_plotel <not present>
**                       : fromnastran_cdh_weld <not present>
**                       : fromnastran_spoint_dof <not present>
**
** command line arguments: wtmass_fixup=ON
**                       : distribution=preservePID
**                       : pbar_zero_reset=1e-20
**                       : loadcases=ON
**                       : surface_based_coupling=ON
**                       : cquad4=S4R
**                       : chexa=C3D8I
**                       : ctetra=C3D10M
**                       : cbar=B31
**                       : beam_offset_coupling=ON
**                       : beam_orientation_vector=ON
**                       : shell_general_section=OFF
**                       : plotel <not present>
**                       : cdh_weld <not present>
**                       : eigensolver <not present>
**                       : spoint_dof <not present, using default=9>
**
** --------------------------------
** Nastran Case Control entities processed:
**      keyword   number
** ------------   ------
**   BEGIN BULK        1
** --------------------------------
** Nastran Bulk Data processed:
**      keyword   number
** ------------   ------
**       CTETRA     1694
**      ENDDATA        1
**         GRID      575
**
** environment_variable / command_line_argument summary:
** PARAM,WTMASS will be used to adjust structural mass/density
** *DISTRIBUTION will be used for shell offsets, orientations, and thicknesses
**  shell elements will be grouped by PSHELL ID
** Zero PBAR/PBEAM cross sectional parameters will be reset to 1e-20
** Rigid links will be modeled using surface-based *COUPLING constraints
** Beam orientations will be modeled using vectors on beam sections
** Beam offsets will be modeled using rigid couplings and extra nodes
** PSHELL/PCOMP will default to *SHELL SECTION
** PLOTELs will not be translated
** "CDH welds" (isolated CHEXAs with 8 RBE3s) will not be translated to
**  rigid fasteners
** CWELDs will be translated to compliant fasteners
** CQUAD4 elements will be translated to S4R
** SPOINT DOF 0 will be reset to 9 in DMIG, MPC, CELAS2, and CMASS2 data
**
** ---------------------------------------------------
** ---- *NODE ----------------------------------------
** ---------------------------------------------------
**
** following nodes were defined in the global coordinate system
**
*SYSTEM
**
*NODE, SYSTEM=R
       1,   79.771416,   157.55238,   74.814163
       2,   74.730972,   152.77222,   71.571159
       3,   72.500313,   157.81827,    71.80452
       4,   76.609795,   153.75253,   69.191284
       5,     85.5896,   329.60431,   89.356491
       6,   79.140953,   334.31537,   88.046707
       7,   77.444809,   332.24826,    96.09166
       8,    80.25605,   336.03766,   93.841049
       9,   81.740524,   157.64395,   67.464348
      10,   80.547188,   152.58473,   71.856827
      11,   82.024658,   335.91486,   98.611359
      12,   80.243088,      330.78,   102.56413
      13,   85.589684,   327.66199,   99.299973
      14,   82.549393,   323.75464,   79.409248
      15,   77.276558,   321.47824,   86.830498
      16,   83.894287,   314.27631,   93.899963
      17,   88.365776,    153.9201,   69.025719
      18,   73.315399,   304.18674,   92.136536
      19,   62.232929,   306.12354,   83.610641
      20,   64.318649,   301.49261,   78.625809
** ... 555 like lines cut
**
*SECTION CONTROLS, NAME=REDUCED_INTEGRATION_FROMNASTRAN
**
** ---------------------------------------------------
** ---- SOLID elements -------------------------------
** ---------------------------------------------------
**
** following elements refer to a (missing) PSOLID entry with PID = 1
** DUMMY MATERIAL AND SECTION -=>
*MATERIAL, NAME=MATERIAL_PSOLID_1
*ELASTIC
1., 0.
**
*SOLID SECTION, ELSET=PSOLID_1, MATERIAL=MATERIAL_PSOLID_1
**
*ELEMENT, TYPE=C3D4, ELSET=PSOLID_1
**
1, 1, 2, 3, 4
2, 5, 6, 7, 8
3, 9, 10, 1, 4
4, 11, 12, 7, 13
5, 14, 15, 16, 5
6, 9, 10, 17, 1
7, 18, 19, 20, 21
8, 1, 17, 9, 22
9, 18, 23, 21, 24
10, 25, 26, 27, 28
11, 29, 30, 31, 32
12, 33, 34, 35, 36
13, 37, 38, 39, 40
14, 32, 29, 41, 42
15, 43, 44, 45, 46
16, 47, 48, 49, 50
17, 51, 52, 53, 13
18, 54, 55, 56, 57
19, 58, 59, 60, 61
20, 62, 38, 63, 64
** ... 1674 like lines cut
**
** elset ALL_3DSOLID contains 1694 elements in 1 elsets
*ELSET, ELSET=ALL_3DSOLID
PSOLID_1,
**
** elset ALL_MASSIVE_ELEMENTS contains all 1694 elements that can have mass
*ELSET, ELSET=ALL_MASSIVE_ELEMENTS
ALL_3DSOLID,
*STEP
WARNING: did not find "SOL=" in Nastran file
*STATIC
*END STEP
