*Heading
** Job name: 040817_ep2d_mddw12_right_TA Model name: 040817_ep2d_mddw12_right_TA
** Generated by: Abaqus/CAE 2017
*Preprint, echo=NO, model=NO, history=NO, contact=NO
**
** PARTS
**
*Part, name=PART-1
*Node
1,   84.4256592,    132.17366,   67.5130463
2,   83.8932495,   130.141907,   72.1751099
3,   86.6849289,   135.045425,   67.2827225
4,   81.7743912,   135.170425,   72.6800537
5,   92.3398285,   275.778076,   99.5784531
6,   86.2225571,   276.986633,   104.575127
7,   90.5065231,   271.278107,      104.986
8,   90.8003845,   276.188599,   106.595131
9,   88.0802612,   146.981949,   86.1626511
10,   82.0343552,    141.77774,   74.4083328
11,   81.5109329,   150.785568,   72.6810608
12,   91.0771103,   141.328171,   69.2913742
13,   56.8150139,   209.433975,   67.0873642
14,   56.4723473,    219.21167,   67.0315247
15,    49.418396,   211.782272,   67.8186493
16,   53.5923843,   210.228973,   80.2626724
17,    94.835289,   237.705902,   75.3833237
18,    90.394249,   230.732895,   72.0061111
19,   89.6641693,   234.811249,    79.921524
20,   87.8201141,   238.233002,   71.7328033
** ... 710 like lines cut
*Element, type=C3D4
1,   1,   2,   3,   4
2,   5,   6,   7,   8
3,   9,  10,  11,  12
4,  13,  14,  15,  16
5,  17,  18,  19,  20
6,  21,  22,  23,  24
7,  22,  25,  23,  24
8,  26,  27,  28,  29
9,  30,  18,  19,  31
10,  32,  33,  34,  35
11,  36,  37,  38,  39
12,  31,  40,  41,  42
13,  43,  44,  45,  46
14,  47,  48,  49,  50
15,  51,  52,  53,  54
16,  55,  56,  57,  58
17,  26,  59,  29,  60
18,  26,  29,  28,  61
19,  62,  63,  64,  65
20,  66,  67,  19,  17
** ... 2248 like lines cut
*Elset, elset=PSOLID_1, generate
1,  2268,     1
*Orientation, name=Ori-TA_TEST_DISCFIELD-1, system=RECTANGULAR
TA_TEST_DISCFIELD-1
1, 0.
*Solid Section, elset=PSOLID_1, orientation=Ori-PART-1_TA_TEST_DISCFIELD-1, material=MATERIAL_PSOLID_1
,
*Distribution, name=TA_TEST_DISCFIELD-1, location=ELEMENT, Table=TA_TEST_DISCFIELD-1_Table
,           1.,           0.,           0.,           0.,           1.,           0.
1, -0.23306, 0.94006, -0.24895, 0.59241, 0.1904, 0.78281
2, 0.31206, 0.93574, 0.16436, 0.78397, -0.19439, 0.58958
3, -0.22059, 0.94708, -0.2332, 0.60086, 0.17834, 0.7792
4, -0.2229, 0.95915, -0.17419, 0.60043, 0.17897, 0.7794
5, 0.041762, 0.98564, 0.16363, 0.72117, -0.029017, 0.69215
6, 0.051855, 0.99387, -0.097667, 0.72431, -0.035755, 0.68855
7, 0.030071, 0.99262, -0.11748, 0.71735, -0.02096, 0.69639
8, -0.32278, 0.92198, -0.21395, 0.52683, 0.27681, 0.80364
9, 0.070296, 0.99637, -0.048052, 0.72992, -0.048086, 0.68184
10, -0.25869, 0.95107, -0.16895, 0.57678, 0.2121, 0.78888
11, 0.13604, 0.98951, -0.048558, 0.74794, -0.09036, 0.65758
12, -0.083633, 0.99103, -0.10422, 0.67419, 0.061777, 0.73597
13, 0.45875, 0.88601, -0.067295, 0.80299, -0.27342, 0.52957
14, -0.15026, 0.97733, -0.14914, 0.64231, 0.1154, 0.75771
15, 0.3189, 0.9349, 0.15578, 0.78502, -0.19808, 0.58694
16, 0.15439, 0.97458, 0.16237, 0.75256, -0.10197, 0.65058
17, -0.31776, 0.92403, -0.21261, 0.53104, 0.2716, 0.80264
18, -0.30355, 0.92854, -0.21371, 0.54246, 0.25726, 0.79972
19, 0.51383, 0.85757, -0.02347, 0.80812, -0.30305, 0.50507
20, 0.045577, 0.98426, 0.17076, 0.72239, -0.031628, 0.69076
** ... 2248 like lines cut
** Section: Section-1-PSOLID_1
*Solid Section, elset=PSOLID_1, material=MATERIAL_PSOLID_1
,
*End Part
**
**
** ASSEMBLY
**
*Assembly, name=Assembly
**
*Instance, name=PART-1-1, part=PART-1
*End Instance
**
*Elset, elset=ALL_3DSOLID, instance=PART-1-1, generate
1,  2268,     1
*Elset, elset=ALL_MASSIVE_ELEMENTS, instance=PART-1-1, generate
1,  2268,     1
*End Assembly
*Distribution Table, name=TA_TEST_DISCFIELD-1_Table
coord3d, coord3d
**
** MATERIALS
**
**  ---------------------------------------------------
**  ---- SOLID elements -------------------------------
**  ---------------------------------------------------
**
**  following elements refer to a (missing) PSOLID entry with PID = 1
**  DUMMY MATERIAL AND SECTION -=>
*Material, name=MATERIAL_PSOLID_1
*Elastic
1.,0.
** ----------------------------------------------------------------
**
** STEP: Step-1
**
*Step, name=Step-1, nlgeom=NO
WARNING: did not find "SOL=" in Nastran file
*Static
1., 1., 1e-05, 1.
**
** OUTPUT REQUESTS
**
*Restart, write, frequency=0
**
** FIELD OUTPUT: F-Output-1
**
*Output, field, variable=PRESELECT
**
** HISTORY OUTPUT: H-Output-1
**
*Output, history, variable=PRESELECT
*End Step
