*Heading
** Job name: 270717_ep2d_mddw12_right_TA_isolated Model name: 270717_ep2d_mddw12_right_TA_isolated
** Generated by: Abaqus/CAE 2017
*Preprint, echo=NO, model=NO, history=NO, contact=NO
**
** PARTS
**
*Part, name=PART-1
*Node
1,    80.763031,   211.612137,   92.6058884
2,   78.7798615,   213.738724,   85.9242706
3,   81.0969772,   209.226379,   87.2643738
4,   74.6284561,   210.066788,   91.8887177
5,    71.825676,   308.490479,   99.0189972
6,   70.9800568,   314.434814,   95.7036819
7,   68.9051666,   313.533783,   99.2437515
8,   75.3612671,   314.695801,    99.469696
9,   72.6973267,   218.283493,   92.3513794
10,   65.1825027,    210.42276,   94.7067184
11,   69.0421143,   213.642685,   81.9399033
12,   56.6534615,   222.621689,   98.9484024
13,   55.3973503,   224.680618,   97.4155502
14,   61.6558876,   227.163391,   92.9102325
15,   54.5885391,    220.66951,     94.58078
16,   79.4407654,   221.694641,   86.8282089
17,   80.6866302,   217.348846,   87.4024048
18,   80.0901871,    221.84584,   94.5732346
19,   58.5726471,   233.423111,    92.648941
20,   54.3849411,   227.715088,   95.2251434
** ... 833 like lines cut
*Element, type=C3D4
1,   1,   2,   3,   4
2,   5,   6,   7,   8
3,   9,  10,  11,   4
4,  12,  13,  14,  15
5,  16,  17,  18,   9
6,  19,  20,  21,  14
7,  22,  23,  18,  24
8,  22,  23,  25,  18
9,  26,  27,  28,  29
10,  30,  31,  32,  33
11,  34,  25,  18,  35
12,  36,  37,  38,  39
13,  40,  41,  42,  43
14,  41,  44,  42,  43
15,  45,  46,  47,  48
16,  49,  16,  50,  51
17,  52,  53,  54,  55
18,  56,  57,  58,  59
19,  60,  61,  62,  63
20,  64,  65,  66,  67
** ... 2514 like lines cut
*Elset, elset=PSOLID_1, generate
1,  2534,     1
*Orientation, name=Ori-TA_TEST_DISCFIELD-1, system=RECTANGULAR
TA_TEST_DISCFIELD-1
1, 0.
*Solid Section, elset=PSOLID_1, orientation=Ori-PART-1_TA_TEST_DISCFIELD-1, material=MATERIAL_PSOLID_1
,
*Distribution, name=TA_TEST_DISCFIELD-1, location=ELEMENT, Table=TA_TEST_DISCFIELD-1_Table
,           1.,           0.,           0.,           0.,           1.,           0.
1, -0.12127, 0.9829, 0.13856, 0.65637, 0.092385, 0.74876
2, 0.22938, 0.97027, 0.07721, 0.76907, -0.14705, 0.62202
3, -0.13418, 0.98433, 0.11443, 0.65019, 0.10262, 0.75281
4, -0.067599, 0.97717, 0.20143, 0.68046, 0.050572, 0.73104
5, -0.045782, 0.98998, 0.13356, 0.68979, 0.033446, 0.72324
6, -0.097517, 0.98279, 0.15686, 0.66747, 0.073525, 0.741
7, -0.036204, 0.98579, 0.16402, 0.69352, 0.026441, 0.71996
8, -0.034146, 0.98657, 0.15974, 0.69433, 0.024893, 0.71922
9, -0.13399, 0.97853, 0.15663, 0.64989, 0.1031, 0.753
10, 0.3783, 0.92182, 0.084463, 0.7937, -0.23095, 0.56276
11, -0.014543, 0.98807, 0.15332, 0.70181, 0.010484, 0.71229
12, 0.012538, 0.98093, 0.19395, 0.71155, -0.0089803, 0.70257
13, -0.29995, 0.94626, 0.12091, 0.54563, 0.25322, 0.79885
14, -0.29465, 0.94737, 0.12515, 0.54962, 0.24811, 0.79772
15, 0.15416, 0.96562, 0.20932, 0.75323, -0.1037, 0.64953
16, -0.029699, 0.99423, 0.10306, 0.69615, 0.021435, 0.71758
17, 0.19932, 0.96799, 0.15253, 0.7632, -0.13032, 0.63288
18, 0.063169, 0.97701, 0.20364, 0.72818, -0.044222, 0.68396
19, 0.55576, 0.8307, 0.032644, 0.8112, -0.32517, 0.48603
20, 0.17672, 0.97975, 0.094131, 0.75786, -0.11581, 0.64206
** ... 2514 like lines cut
** Section: Section-1-PSOLID_1
*Solid Section, elset=PSOLID_1, material=MATERIAL_PSOLID_1
,
*End Part
**
**
** ASSEMBLY
**
*Assembly, name=Assembly
**
*Instance, name=PART-1-1, part=PART-1
*End Instance
**
*Elset, elset=ALL_3DSOLID, instance=PART-1-1, generate
1,  2534,     1
*Elset, elset=ALL_MASSIVE_ELEMENTS, instance=PART-1-1, generate
1,  2534,     1
*End Assembly
*Distribution Table, name=TA_TEST_DISCFIELD-1_Table
coord3d, coord3d
**
** MATERIALS
**
**  ---------------------------------------------------
**  ---- SOLID elements -------------------------------
**  ---------------------------------------------------
**
**  following elements refer to a (missing) PSOLID entry with PID = 1
**  DUMMY MATERIAL AND SECTION -=>
*Material, name=MATERIAL_PSOLID_1
*Elastic
1.,0.
** ----------------------------------------------------------------
**
** STEP: Step-1
**
*Step, name=Step-1, nlgeom=NO
WARNING: did not find "SOL=" in Nastran file
*Static
1., 1., 1e-05, 1.
**
** OUTPUT REQUESTS
**
*Restart, write, frequency=0
**
** FIELD OUTPUT: F-Output-1
**
*Output, field, variable=PRESELECT
**
** HISTORY OUTPUT: H-Output-1
**
*Output, history, variable=PRESELECT
*End Step
