*Heading
** Job name: 190617_ep2d_mddw12_right_TA Model name: ep2d_mddw12_right_TA
** Generated by: Abaqus/CAE 2017
*Preprint, echo=NO, model=NO, history=NO, contact=NO
**
** PARTS
**
*Part, name=PART-1
*Node
1,   65.0550079,   306.934235,   83.8681717
2,   61.8667412,   311.792725,   77.6541138
3,   66.9190292,   313.809631,   82.5382462
4,   66.1907196,   311.023773,   75.2317047
5,   47.3805084,   273.294067,   70.3855743
6,    54.231308,   275.087616,   66.9002075
7,   51.9171066,   267.127167,   76.9517212
8,   48.8224525,   268.122437,    66.868454
9,   65.8573837,   137.803696,   71.9028549
10,   74.7197952,   147.612564,   61.2849731
11,   86.5213699,   139.470337,   75.6890411
12,   79.7780228,   135.684631,   63.1364632
13,   45.7891922,   278.162994,   76.1358109
14,   51.6916008,   275.613678,   73.5758591
15,   57.7662544,   278.976532,   77.6331635
16,   83.0488968,   211.033768,   80.0619507
17,    90.871254,   204.532654,   72.7759171
18,    84.700943,   199.617386,   79.2851257
19,   85.3423157,   207.537766,    69.275795
20,   91.2361603,   190.724136,   85.2980957
** ... 719 like lines cut
*Element, type=C3D4
1,   1,   2,   3,   4
2,   5,   6,   7,   8
3,   9,  10,  11,  12
4,  13,  14,  15,   7
5,  16,  17,  18,  19
6,  20,  21,  22,  23
7,  15,  24,  25,  14
8,  26,  27,  28,  29
9,  30,  31,  32,  33
10,  34,  35,  36,  37
11,  38,  39,  40,  41
12,  42,  43,  44,  45
13,  46,  47,   5,   7
14,   3,  48,   1,   4
15,  49,  50,  51,  52
16,  53,  54,  55,  56
17,  54,  57,  55,  56
18,  58,  59,  60,  61
19,  62,  63,  64,  65
20,  66,  67,  68,  69
** ... 2188 like lines cut
*Elset, elset=PSOLID_1, generate
1,  2208,     1
*Orientation, name=Ori-TA_TEST_DISCFIELD-1, system=RECTANGULAR
TA_TEST_DISCFIELD-1
1, 0.
*Distribution, name=TA_TEST_DISCFIELD-1, location=ELEMENT, Table=TA_TEST_DISCFIELD-1_Table
,           1.,           0.,           0.,           0.,           1.,           0.
1, 0.39225, 0.91028, 0.13238, 0.79579, -0.23965, 0.55614
2, 0.26017, 0.94996, 0.17288, 0.77558, -0.16674, 0.60883
3, -0.31717, 0.94365, -0.094522, 0.53261, 0.26964, 0.80226
4, 0.26878, 0.94381, 0.19231, 0.77733, -0.1723, 0.60503
5, 0.29419, 0.95558, -0.017973, 0.78086, -0.18381, 0.59705
6, 0.19965, 0.97879, -0.045929, 0.76281, -0.12923, 0.63358
7, 0.29685, 0.93692, 0.18454, 0.78216, -0.18819, 0.59397
8, 0.39361, 0.91372, 0.10093, 0.79577, -0.23959, 0.55619
9, -0.41372, 0.90023, -0.13576, 0.44078, 0.37483, 0.81561
10, 0.41183, 0.90589, 0.098784, 0.79801, -0.2494, 0.54861
11, 0.43515, 0.8997, 0.034512, 0.8005, -0.26096, 0.53954
12, 0.34675, 0.93246, 0.10144, 0.78938, -0.21398, 0.57541
13, 0.23043, 0.95494, 0.18704, 0.76996, -0.14968, 0.62028
14, 0.38795, 0.91317, 0.12496, 0.79519, -0.2371, 0.55809
15, 0.076871, 0.97533, 0.20693, 0.73234, -0.053503, 0.67884
16, 0.41802, 0.90292, 0.099996, 0.79875, -0.25277, 0.54598
17, 0.41736, 0.90324, 0.099844, 0.79868, -0.25241, 0.54626
18, 0.077237, 0.97954, 0.18585, 0.73235, -0.053526, 0.67882
19, -0.28616, 0.95312, -0.098388, 0.55673, 0.23887, 0.79561
20, 0.28871, 0.93656, 0.19872, 0.78092, -0.18401, 0.59691
** ... 2188 like lines cut
** Section: Section-1-PSOLID_1
*Solid Section, elset=PSOLID_1, material=MATERIAL_PSOLID_1
,
*End Part
**
**
** ASSEMBLY
**
*Assembly, name=Assembly
**
*Instance, name=PART-1-1, part=PART-1
*End Instance
**
*Elset, elset=ALL_3DSOLID, instance=PART-1-1, generate
1,  2208,     1
*Elset, elset=ALL_MASSIVE_ELEMENTS, instance=PART-1-1, generate
1,  2208,     1
*End Assembly
*Distribution Table, name=TA_TEST_DISCFIELD-1_Table
coord3d, coord3d
**
** MATERIALS
**
**  ---------------------------------------------------
**  ---- SOLID elements -------------------------------
**  ---------------------------------------------------
**
**  following elements refer to a (missing) PSOLID entry with PID = 1
**  DUMMY MATERIAL AND SECTION -=>
*Material, name=MATERIAL_PSOLID_1
*Elastic
1.,0.
** ----------------------------------------------------------------
**
** STEP: Step-1
**
*Step, name=Step-1, nlgeom=NO
WARNING: did not find "SOL=" in Nastran file
*Static
1., 1., 1e-05, 1.
**
** OUTPUT REQUESTS
**
*Restart, write, frequency=0
**
** FIELD OUTPUT: F-Output-1
**
*Output, field, variable=PRESELECT
**
** HISTORY OUTPUT: H-Output-1
**
*Output, history, variable=PRESELECT
*End Step
