*Heading
** Job name: ep2d_mddw12_right_TA_isolated Model name: ep2d_mddw12_right_TA_isolated
** Generated by: Abaqus/CAE 2017
*Preprint, echo=NO, model=NO, history=NO, contact=NO
**
** PARTS
**
*Part, name=PART-1
*Node
1,   79.7714157,   157.552383,   74.8141632
2,   74.7309723,   152.772217,   71.5711594
3,   72.5003128,   157.818268,   71.8045197
4,   76.6097946,   153.752533,   69.1912842
5,   85.5895996,   329.604309,   89.3564911
6,   79.1409531,   334.315369,   88.0467072
7,    77.444809,    332.24826,   96.0916595
8,   80.2560501,   336.037659,   93.8410492
9,   81.7405243,   157.643951,   67.4643478
10,   80.5471878,   152.584732,   71.8568268
11,   82.0246582,   335.914856,   98.6113586
12,   80.2430878,   330.779999,   102.564133
13,   85.5896835,   327.661987,   99.2999725
14,   82.5493927,   323.754639,   79.4092484
15,   77.2765579,   321.478241,   86.8304977
16,   83.8942871,   314.276306,   93.8999634
17,   88.3657761,   153.920105,   69.0257187
18,   73.3153992,   304.186737,   92.1365356
19,   62.2329292,   306.123535,   83.6106415
20,   64.3186493,   301.492615,   78.6258087
** ... 555 like lines cut
*Element, type=C3D4
1,   1,   2,   3,   4
2,   5,   6,   7,   8
3,   9,  10,   1,   4
4,  11,  12,   7,  13
5,  14,  15,  16,   5
6,   9,  10,  17,   1
7,  18,  19,  20,  21
8,   1,  17,   9,  22
9,  18,  23,  21,  24
10,  25,  26,  27,  28
11,  29,  30,  31,  32
12,  33,  34,  35,  36
13,  37,  38,  39,  40
14,  32,  29,  41,  42
15,  43,  44,  45,  46
16,  47,  48,  49,  50
17,  51,  52,  53,  13
18,  54,  55,  56,  57
19,  58,  59,  60,  61
20,  62,  38,  63,  64
** ... 1674 like lines cut
*Elset, elset=PSOLID_1, generate
1,  1694,     1
*Orientation, name=Ori-TA_TEST_DISCFIELD-1, system=RECTANGULAR
TA_TEST_DISCFIELD-1
1, 0.
*Solid Section, elset=PSOLID_1, orientation=Ori-PART-1_TA_TEST_DISCFIELD-1, material=MATERIAL_PSOLID_1
,
*Distribution, name=TA_TEST_DISCFIELD-1, location=ELEMENT, Table=TA_TEST_DISCFIELD-1_Table
,           1.,           0.,           0.,           0.,           1.,           0.
1, -0.36081, 0.92947, -0.076859, 0.49543, 0.31435, 0.80978
2, 0.37801, 0.92117, 0.092441, 0.7937, -0.23094, 0.56277
3, -0.34718, 0.9343, -0.08092, 0.50754, 0.30013, 0.80767
4, 0.38929, 0.91616, 0.0954, 0.79519, -0.23713, 0.55806
5, 0.36162, 0.927, 0.099532, 0.7915, -0.22212, 0.56938
6, -0.33834, 0.93754, -0.080875, 0.51523, 0.29093, 0.80616
7, 0.29415, 0.94656, 0.13226, 0.78129, -0.18523, 0.59606
8, -0.32652, 0.94216, -0.075668, 0.52535, 0.27863, 0.80398
9, 0.2684, 0.95325, 0.13886, 0.77682, -0.17067, 0.60615
10, 0.38415, 0.92326, -0.0050756, 0.7943, -0.23338, 0.56091
11, -0.41259, 0.90221, -0.12564, 0.44257, 0.37294, 0.81551
12, 0.21466, 0.97456, 0.06445, 0.76603, -0.13827, 0.62776
13, 0.041894, 0.9884, 0.14596, 0.72132, -0.02933, 0.69199
14, -0.40112, 0.90741, -0.12536, 0.45455, 0.36013, 0.81467
15, 0.19794, 0.95106, 0.2373, 0.76365, -0.13156, 0.63209
16, 0.10879, 0.971, 0.21288, 0.74149, -0.074705, 0.66679
17, 0.39542, 0.91348, 0.095881, 0.79598, -0.24047, 0.55551
18, 0.30256, 0.95025, 0.074085, 0.78239, -0.18895, 0.59344
19, -0.24429, 0.96822, -0.053551, 0.58695, 0.19807, 0.78502
20, -0.12488, 0.98017, 0.15385, 0.65447, 0.095556, 0.75003
** ... 1674 like lines cut
** Section: Section-1-PSOLID_1
*Solid Section, elset=PSOLID_1, material=MATERIAL_PSOLID_1
,
*End Part
**
**
** ASSEMBLY
**
*Assembly, name=Assembly
**
*Instance, name=PART-1-1, part=PART-1
*End Instance
**
*Elset, elset=ALL_3DSOLID, instance=PART-1-1, generate
1,  1694,     1
*Elset, elset=ALL_MASSIVE_ELEMENTS, instance=PART-1-1, generate
1,  1694,     1
*End Assembly
*Distribution Table, name=TA_TEST_DISCFIELD-1_Table
coord3d, coord3d
**
** MATERIALS
**
**  ---------------------------------------------------
**  ---- SOLID elements -------------------------------
**  ---------------------------------------------------
**
**  following elements refer to a (missing) PSOLID entry with PID = 1
**  DUMMY MATERIAL AND SECTION -=>
*Material, name=MATERIAL_PSOLID_1
*Elastic
1.,0.
** ----------------------------------------------------------------
**
** STEP: Step-1
**
*Step, name=Step-1, nlgeom=NO
WARNING: did not find "SOL=" in Nastran file
*Static
1., 1., 1e-05, 1.
**
** OUTPUT REQUESTS
**
*Restart, write, frequency=0
**
** FIELD OUTPUT: F-Output-1
**
*Output, field, variable=PRESELECT
**
** HISTORY OUTPUT: H-Output-1
**
*Output, history, variable=PRESELECT
*End Step
